616

Zn    7.533852    5.300649    5.300649
Zn   18.135149   20.368353   20.368353
Zn   18.135149   20.368353    5.300649
Zn    7.533852    5.300649   20.368353
Zn   18.135149    5.300649   20.368353
Zn    7.533852   20.368353    5.300649
Zn    7.533852   20.368353   20.368353
Zn   18.135149    5.300649    5.300649
Zn    5.300649    7.533852    5.300649
Zn   20.368353   18.135149   20.368353
Zn    5.300649   18.135149   20.368353
Zn   20.368353    7.533852    5.300649
Zn   20.368353   18.135149    5.300649
Zn    5.300649    7.533852   20.368353
Zn   20.368353    7.533852   20.368353
Zn    5.300649   18.135149    5.300649
Zn    5.300649    5.300649    7.533852
Zn   20.368353   20.368353   18.135149
Zn   20.368353    5.300649   18.135149
Zn    5.300649   20.368353    7.533852
Zn    5.300649   20.368353   18.135149
Zn   20.368353    5.300649    7.533852
Zn   20.368353   20.368353    7.533852
Zn    5.300649    5.300649   18.135149
Zn    7.533852   18.135149   18.135149
Zn   18.135149    7.533852    7.533852
Zn   18.135149    7.533852   18.135149
Zn    7.533852   18.135149    7.533852
Zn   18.135149   18.135149    7.533852
Zn    7.533852    7.533852   18.135149
Zn    7.533852    7.533852    7.533852
Zn   18.135149   18.135149   18.135149
 O    6.417250    6.417250    6.417250
 O   19.251751   19.251751   19.251751
 O   19.251751   19.251751    6.417250
 O    6.417250    6.417250   19.251751
 O   19.251751    6.417250   19.251751
 O    6.417250   19.251751    6.417250
 O    6.417250   19.251751   19.251751
 O   19.251751    6.417250    6.417250
 O    7.233524    5.600976    3.437079
 O   18.435476   20.068026   22.231922
 O   18.435476   20.068026    3.437079
 O    7.233524    5.600976   22.231922
 O   18.435476    5.600976   22.231922
 O    7.233524   20.068026    3.437079
 O    7.233524   20.068026   22.231922
 O   18.435476    5.600976    3.437079
 O    3.437079    7.233524    5.600976
 O   22.231922   18.435476   20.068026
 O    3.437079   18.435476   20.068026
 O   22.231922    7.233524    5.600976
 O   22.231922   18.435476    5.600976
 O    3.437079    7.233524   20.068026
 O   22.231922    7.233524   20.068026
 O    3.437079   18.435476    5.600976
 O    5.600976    3.437079    7.233524
 O   20.068026   22.231922   18.435476
 O   20.068026    3.437079   18.435476
 O    5.600976   22.231922    7.233524
 O    5.600976   22.231922   18.435476
 O   20.068026    3.437079    7.233524
 O   20.068026   22.231922    7.233524
 O    5.600976    3.437079   18.435476
 O    5.600976    7.233524   22.231922
 O   20.068026   18.435476    3.437079
 O   20.068026   18.435476   22.231922
 O    5.600976    7.233524    3.437079
 O    5.600976   18.435476    3.437079
 O   20.068026    7.233524   22.231922
 O   20.068026    7.233524    3.437079
 O    5.600976   18.435476   22.231922
 O    7.233524    3.437079   20.068026
 O   18.435476   22.231922    5.600976
 O   18.435476    3.437079    5.600976
 O    7.233524   22.231922   20.068026
 O   18.435476   22.231922   20.068026
 O    7.233524    3.437079    5.600976
 O    7.233524   22.231922    5.600976
 O   18.435476    3.437079   20.068026
 O    3.437079    5.600976   18.435476
 O   22.231922   20.068026    7.233524
 O    3.437079   20.068026    7.233524
 O   22.231922    5.600976   18.435476
 O   22.231922    5.600976    7.233524
 O    3.437079   20.068026   18.435476
 O   22.231922   20.068026   18.435476
 O    3.437079    5.600976    7.233524
 O    7.233524   18.435476   16.271580
 O   18.435476    7.233524    9.397422
 O   18.435476    7.233524   16.271580
 O    7.233524   18.435476    9.397422
 O   18.435476   18.435476    9.397422
 O    7.233524    7.233524   16.271580
 O    7.233524    7.233524    9.397422
 O   18.435476   18.435476   16.271580
 O    5.600976   16.271580   20.068026
 O   20.068026    9.397422    5.600976
 O   20.068026   16.271580    5.600976
 O    5.600976    9.397422   20.068026
 O    5.600976    9.397422    5.600976
 O   20.068026   16.271580   20.068026
 O   20.068026    9.397422   20.068026
 O    5.600976   16.271580    5.600976
 O    5.600976   20.068026    9.397422
 O   20.068026    5.600976   16.271580
 O   20.068026    5.600976    9.397422
 O    5.600976   20.068026   16.271580
 O    5.600976    5.600976   16.271580
 O   20.068026   20.068026    9.397422
 O   20.068026   20.068026   16.271580
 O    5.600976    5.600976    9.397422
 O    7.233524   16.271580    7.233524
 O   18.435476    9.397422   18.435476
 O   18.435476   16.271580   18.435476
 O    7.233524    9.397422    7.233524
 O   18.435476    9.397422    7.233524
 O    7.233524   16.271580   18.435476
 O    7.233524    9.397422   18.435476
 O   18.435476   16.271580    7.233524
 O   16.271580    7.233524   18.435476
 O    9.397422   18.435476    7.233524
 O   16.271580   18.435476    7.233524
 O    9.397422    7.233524   18.435476
 O    9.397422   18.435476   18.435476
 O   16.271580    7.233524    7.233524
 O    9.397422    7.233524    7.233524
 O   16.271580   18.435476   18.435476
 O   16.271580    5.600976    5.600976
 O    9.397422   20.068026   20.068026
 O   16.271580   20.068026   20.068026
 O    9.397422    5.600976    5.600976
 O    9.397422    5.600976   20.068026
 O   16.271580   20.068026    5.600976
 O    9.397422   20.068026    5.600976
 O   16.271580    5.600976   20.068026
 C    6.417250    6.417250    2.836425
 C   19.251751   19.251751   22.832577
 C   19.251751   19.251751    2.836425
 C    6.417250    6.417250   22.832577
 C   19.251751    6.417250   22.832577
 C    6.417250   19.251751    2.836425
 C    6.417250   19.251751   22.832577
 C   19.251751    6.417250    2.836425
 C    2.836425    6.417250    6.417250
 C   22.832577   19.251751   19.251751
 C    2.836425   19.251751   19.251751
 C   22.832577    6.417250    6.417250
 C   22.832577   19.251751    6.417250
 C    2.836425    6.417250   19.251751
 C   22.832577    6.417250   19.251751
 C    2.836425   19.251751    6.417250
 C    6.417250    2.836425    6.417250
 C   19.251751   22.832577   19.251751
 C   19.251751    2.836425   19.251751
 C    6.417250   22.832577    6.417250
 C    6.417250   22.832577   19.251751
 C   19.251751    2.836425    6.417250
 C   19.251751   22.832577    6.417250
 C    6.417250    2.836425   19.251751
 C    6.417250   19.251751   15.670924
 C   19.251751    6.417250    9.998075
 C   19.251751    6.417250   15.670924
 C    6.417250   19.251751    9.998075
 C   19.251751   19.251751    9.998075
 C    6.417250    6.417250   15.670924
 C    6.417250    6.417250    9.998075
 C   19.251751   19.251751   15.670924
 C    6.417250   15.670924   19.251751
 C   19.251751    9.998075    6.417250
 C   19.251751   15.670924    6.417250
 C    6.417250    9.998075   19.251751
 C    6.417250    9.998075    6.417250
 C   19.251751   15.670924   19.251751
 C   19.251751    9.998075   19.251751
 C    6.417250   15.670924    6.417250
 C   15.670924    6.417250   19.251751
 C    9.998075   19.251751    6.417250
 C   15.670924   19.251751    6.417250
 C    9.998075    6.417250   19.251751
 C    9.998075   19.251751   19.251751
 C   15.670924    6.417250    6.417250
 C    9.998075    6.417250    6.417250
 C   15.670924   19.251751   19.251751
 C    7.266894    5.567606    0.675095
 C   18.402107   20.101395   24.993906
 C   18.402107   20.101395    0.675095
 C    7.266894    5.567606   24.993906
 C   18.402107    5.567606   24.993906
 C    7.266894   20.101395    0.675095
 C    7.266894   20.101395   24.993906
 C   18.402107    5.567606    0.675095
 C    0.675095    7.266894    5.567606
 C   24.993906   18.402107   20.101395
 C    0.675095   18.402107   20.101395
 C   24.993906    7.266894    5.567606
 C   24.993906   18.402107    5.567606
 C    0.675095    7.266894   20.101395
 C   24.993906    7.266894   20.101395
 C    0.675095   18.402107    5.567606
 C    5.567606    0.675095    7.266894
 C   20.101395   24.993906   18.402107
 C   20.101395    0.675095   18.402107
 C    5.567606   24.993906    7.266894
 C    5.567606   24.993906   18.402107
 C   20.101395    0.675095    7.266894
 C   20.101395   24.993906    7.266894
 C    5.567606    0.675095   18.402107
 C    5.567606    7.266894   24.993906
 C   20.101395   18.402107    0.675095
 C   20.101395   18.402107   24.993906
 C    5.567606    7.266894    0.675095
 C    5.567606   18.402107    0.675095
 C   20.101395    7.266894   24.993906
 C   20.101395    7.266894    0.675095
 C    5.567606   18.402107   24.993906
 C    7.266894    0.675095   20.101395
 C   18.402107   24.993906    5.567606
 C   18.402107    0.675095    5.567606
 C    7.266894   24.993906   20.101395
 C   18.402107   24.993906   20.101395
 C    7.266894    0.675095    5.567606
 C    7.266894   24.993906    5.567606
 C   18.402107    0.675095   20.101395
 C    0.675095    5.567606   18.402107
 C   24.993906   20.101395    7.266894
 C    0.675095   20.101395    7.266894
 C   24.993906    5.567606   18.402107
 C   24.993906    5.567606    7.266894
 C    0.675095   20.101395   18.402107
 C   24.993906   20.101395   18.402107
 C    0.675095    5.567606    7.266894
 C    7.266894   18.402107   13.509595
 C   18.402107    7.266894   12.159406
 C   18.402107    7.266894   13.509595
 C    7.266894   18.402107   12.159406
 C   18.402107   18.402107   12.159406
 C    7.266894    7.266894   13.509595
 C    7.266894    7.266894   12.159406
 C   18.402107   18.402107   13.509595
 C    5.567606   13.509595   20.101395
 C   20.101395   12.159406    5.567606
 C   20.101395   13.509595    5.567606
 C    5.567606   12.159406   20.101395
 C    5.567606   12.159406    5.567606
 C   20.101395   13.509595   20.101395
 C   20.101395   12.159406   20.101395
 C    5.567606   13.509595    5.567606
 C    5.567606   20.101395   12.159406
 C   20.101395    5.567606   13.509595
 C   20.101395    5.567606   12.159406
 C    5.567606   20.101395   13.509595
 C    5.567606    5.567606   13.509595
 C   20.101395   20.101395   12.159406
 C   20.101395   20.101395   13.509595
 C    5.567606    5.567606   12.159406
 C    7.266894   13.509595    7.266894
 C   18.402107   12.159406   18.402107
 C   18.402107   13.509595   18.402107
 C    7.266894   12.159406    7.266894
 C   18.402107   12.159406    7.266894
 C    7.266894   13.509595   18.402107
 C    7.266894   12.159406   18.402107
 C   18.402107   13.509595    7.266894
 C   13.509595    7.266894   18.402107
 C   12.159406   18.402107    7.266894
 C   13.509595   18.402107    7.266894
 C   12.159406    7.266894   18.402107
 C   12.159406   18.402107   18.402107
 C   13.509595    7.266894    7.266894
 C   12.159406    7.266894    7.266894
 C   13.509595   18.402107   18.402107
 C   13.509595    5.567606    5.567606
 C   12.159406   20.101395   20.101395
 C   13.509595   20.101395   20.101395
 C   12.159406    5.567606    5.567606
 C   12.159406    5.567606   20.101395
 C   13.509595   20.101395    5.567606
 C   12.159406   20.101395    5.567606
 C   13.509595    5.567606   20.101395
 C    6.417250    6.417250    1.380992
 C   19.251751   19.251751   24.288010
 C   19.251751   19.251751    1.380992
 C    6.417250    6.417250   24.288010
 C   19.251751    6.417250   24.288010
 C    6.417250   19.251751    1.380992
 C    6.417250   19.251751   24.288010
 C   19.251751    6.417250    1.380992
 C    1.380992    6.417250    6.417250
 C   24.288010   19.251751   19.251751
 C    1.380992   19.251751   19.251751
 C   24.288010    6.417250    6.417250
 C   24.288010   19.251751    6.417250
 C    1.380992    6.417250   19.251751
 C   24.288010    6.417250   19.251751
 C    1.380992   19.251751    6.417250
 C    6.417250    1.380992    6.417250
 C   19.251751   24.288010   19.251751
 C   19.251751    1.380992   19.251751
 C    6.417250   24.288010    6.417250
 C    6.417250   24.288010   19.251751
 C   19.251751    1.380992    6.417250
 C   19.251751   24.288010    6.417250
 C    6.417250    1.380992   19.251751
 C    6.417250   19.251751   14.215492
 C   19.251751    6.417250   11.453508
 C   19.251751    6.417250   14.215492
 C    6.417250   19.251751   11.453508
 C   19.251751   19.251751   11.453508
 C    6.417250    6.417250   14.215492
 C    6.417250    6.417250   11.453508
 C   19.251751   19.251751   14.215492
 C    6.417250   14.215492   19.251751
 C   19.251751   11.453508    6.417250
 C   19.251751   14.215492    6.417250
 C    6.417250   11.453508   19.251751
 C    6.417250   11.453508    6.417250
 C   19.251751   14.215492   19.251751
 C   19.251751   11.453508   19.251751
 C    6.417250   14.215492    6.417250
 C   14.215492    6.417250   19.251751
 C   11.453508   19.251751    6.417250
 C   14.215492   19.251751    6.417250
 C   11.453508    6.417250   19.251751
 C   11.453508   19.251751   19.251751
 C   14.215492    6.417250    6.417250
 C   11.453508    6.417250    6.417250
 C   14.215492   19.251751   19.251751
 H    7.852148    4.982353    1.160239
 H   17.816854   20.686647   24.508762
 H   17.816854   20.686647    1.160239
 H    7.852148    4.982353   24.508762
 H   17.816854    4.982353   24.508762
 H    7.852148   20.686647    1.160239
 H    7.852148   20.686647   24.508762
 H   17.816854    4.982353    1.160239
 H    1.160239    7.852148    4.982353
 H   24.508762   17.816854   20.686647
 H    1.160239   17.816854   20.686647
 H   24.508762    7.852148    4.982353
 H   24.508762   17.816854    4.982353
 H    1.160239    7.852148   20.686647
 H   24.508762    7.852148   20.686647
 H    1.160239   17.816854    4.982353
 H    4.982353    1.160239    7.852148
 H   20.686647   24.508762   17.816854
 H   20.686647    1.160239   17.816854
 H    4.982353   24.508762    7.852148
 H    4.982353   24.508762   17.816854
 H   20.686647    1.160239    7.852148
 H   20.686647   24.508762    7.852148
 H    4.982353    1.160239   17.816854
 H    4.982353    7.852148   24.508762
 H   20.686647   17.816854    1.160239
 H   20.686647   17.816854   24.508762
 H    4.982353    7.852148    1.160239
 H    4.982353   17.816854    1.160239
 H   20.686647    7.852148   24.508762
 H   20.686647    7.852148    1.160239
 H    4.982353   17.816854   24.508762
 H    7.852148    1.160239   20.686647
 H   17.816854   24.508762    4.982353
 H   17.816854    1.160239    4.982353
 H    7.852148   24.508762   20.686647
 H   17.816854   24.508762   20.686647
 H    7.852148    1.160239    4.982353
 H    7.852148   24.508762    4.982353
 H   17.816854    1.160239   20.686647
 H    1.160239    4.982353   17.816854
 H   24.508762   20.686647    7.852148
 H    1.160239   20.686647    7.852148
 H   24.508762    4.982353   17.816854
 H   24.508762    4.982353    7.852148
 H    1.160239   20.686647   17.816854
 H   24.508762   20.686647   17.816854
 H    1.160239    4.982353    7.852148
 H    7.852148   17.816854   13.994739
 H   17.816854    7.852147   11.674262
 H   17.816854    7.852147   13.994739
 H    7.852148   17.816854   11.674262
 H   17.816854   17.816854   11.674262
 H    7.852148    7.852147   13.994739
 H    7.852148    7.852147   11.674262
 H   17.816854   17.816854   13.994739
 H    4.982353   13.994739   20.686647
 H   20.686647   11.674262    4.982353
 H   20.686647   13.994739    4.982353
 H    4.982353   11.674262   20.686647
 H    4.982353   11.674262    4.982353
 H   20.686647   13.994739   20.686647
 H   20.686647   11.674262   20.686647
 H    4.982353   13.994739    4.982353
 H    4.982353   20.686647   11.674262
 H   20.686647    4.982353   13.994739
 H   20.686647    4.982353   11.674262
 H    4.982353   20.686647   13.994739
 H    4.982353    4.982353   13.994739
 H   20.686647   20.686647   11.674262
 H   20.686647   20.686647   13.994739
 H    4.982353    4.982353   11.674262
 H    7.852148   13.994739    7.852147
 H   17.816854   11.674262   17.816854
 H   17.816854   13.994739   17.816854
 H    7.852148   11.674262    7.852147
 H   17.816854   11.674262    7.852147
 H    7.852148   13.994739   17.816854
 H    7.852148   11.674262   17.816854
 H   17.816854   13.994739    7.852147
 H   13.994739    7.852148   17.816854
 H   11.674262   17.816854    7.852147
 H   13.994739   17.816854    7.852147
 H   11.674262    7.852148   17.816854
 H   11.674262   17.816854   17.816854
 H   13.994739    7.852148    7.852147
 H   11.674262    7.852148    7.852147
 H   13.994739   17.816854   17.816854
 H   13.994739    4.982353    4.982353
 H   11.674262   20.686647   20.686647
 H   13.994739   20.686647   20.686647
 H   11.674262    4.982353    4.982353
 H   11.674262    4.982353   20.686647
 H   13.994739   20.686647    4.982353
 H   11.674262   20.686647    4.982353
 H   13.994739    4.982353   20.686647
 C    7.266894    5.567606   -0.675095
 C   18.402107   20.101395   26.344095
 C   18.402107   20.101395   -0.675095
 C    7.266894    5.567606   26.344095
 C   18.402107    5.567606   26.344095
 C    7.266894   20.101395   -0.675095
 C    7.266894   20.101395   26.344095
 C   18.402107    5.567606   -0.675095
 C   -0.675095    7.266894    5.567606
 C   26.344095   18.402107   20.101395
 C   -0.675095   18.402107   20.101395
 C   26.344095    7.266894    5.567606
 C   26.344095   18.402107    5.567606
 C   -0.675095    7.266894   20.101395
 C   26.344095    7.266894   20.101395
 C   -0.675095   18.402107    5.567606
 C    5.567606   -0.675095    7.266894
 C   20.101395   26.344095   18.402107
 C   20.101395   -0.675095   18.402107
 C    5.567606   26.344095    7.266894
 C    5.567606   26.344095   18.402107
 C   20.101395   -0.675095    7.266894
 C   20.101395   26.344095    7.266894
 C    5.567606   -0.675095   18.402107
 C    5.567606    7.266894   26.344095
 C   20.101395   18.402107   -0.675095
 C   20.101395   18.402107   26.344095
 C    5.567606    7.266894   -0.675095
 C    5.567606   18.402107   -0.675095
 C   20.101395    7.266894   26.344095
 C   20.101395    7.266894   -0.675095
 C    5.567606   18.402107   26.344095
 C    7.266894   -0.675095   20.101395
 C   18.402107   26.344095    5.567606
 C   18.402107   -0.675095    5.567606
 C    7.266894   26.344095   20.101395
 C   18.402107   26.344095   20.101395
 C    7.266894   -0.675095    5.567606
 C    7.266894   26.344095    5.567606
 C   18.402107   -0.675095   20.101395
 C   -0.675095    5.567606   18.402107
 C   26.344095   20.101395    7.266894
 C   -0.675095   20.101395    7.266894
 C   26.344095    5.567606   18.402107
 C   26.344095    5.567606    7.266894
 C   -0.675095   20.101395   18.402107
 C   26.344095   20.101395   18.402107
 C   -0.675095    5.567606    7.266894
 C    6.417250    6.417250   -1.380991
 H    7.852148    4.982353   -1.160238
 H   17.816854   20.686647   26.829239
 C   19.251751   19.251751   27.049994
 H   17.816854   20.686647   -1.160238
 C   19.251751   19.251751   -1.380991
 C    6.417250    6.417250   27.049994
 H    7.852148    4.982353   26.829239
 H   17.816854    4.982353   26.829239
 C   19.251751    6.417250   27.049994
 C    6.417250   19.251751   -1.380991
 H    7.852148   20.686647   -1.160238
 C    6.417250   19.251751   27.049994
 H    7.852148   20.686647   26.829239
 H   17.816854    4.982353   -1.160238
 C   19.251751    6.417250   -1.380991
 C   -1.380991    6.417250    6.417250
 H   -1.160238    7.852148    4.982353
 H   26.829239   17.816854   20.686647
 C   27.049994   19.251751   19.251751
 H   -1.160238   17.816854   20.686647
 C   -1.380991   19.251751   19.251751
 C   27.049994    6.417250    6.417250
 H   26.829239    7.852148    4.982353
 H   26.829239   17.816854    4.982353
 C   27.049994   19.251751    6.417250
 C   -1.380991    6.417250   19.251751
 H   -1.160238    7.852148   20.686647
 C   27.049994    6.417250   19.251751
 H   26.829239    7.852148   20.686647
 H   -1.160238   17.816854    4.982353
 C   -1.380991   19.251751    6.417250
 C    6.417250   -1.380991    6.417250
 H    4.982353   -1.160238    7.852148
 H   20.686647   26.829239   17.816854
 C   19.251751   27.049994   19.251751
 H   20.686647   -1.160238   17.816854
 C   19.251751   -1.380991   19.251751
 C    6.417250   27.049994    6.417250
 H    4.982353   26.829239    7.852148
 H    4.982353   26.829239   17.816854
 C    6.417250   27.049994   19.251751
 C   19.251751   -1.380991    6.417250
 H   20.686647   -1.160238    7.852148
 C   19.251751   27.049994    6.417250
 H   20.686647   26.829239    7.852148
 H    4.982353   -1.160238   17.816854
 C    6.417250   -1.380991   19.251751
 H    4.982353    7.852148   26.829239
 H   20.686647   17.816854   -1.160238
 H   20.686647   17.816854   26.829239
 H    4.982353    7.852148   -1.160238
 H    4.982353   17.816854   -1.160238
 H   20.686647    7.852148   26.829239
 H   20.686647    7.852148   -1.160238
 H    4.982353   17.816854   26.829239
 H    7.852148   -1.160238   20.686647
 H   17.816854   26.829239    4.982353
 H   17.816854   -1.160238    4.982353
 H    7.852148   26.829239   20.686647
 H   17.816854   26.829239   20.686647
 H    7.852148   -1.160238    4.982353
 H    7.852148   26.829239    4.982353
 H   17.816854   -1.160238   20.686647
 H   -1.160238    4.982353   17.816854
 H   26.829239   20.686647    7.852148
 H   -1.160238   20.686647    7.852148
 H   26.829239    4.982353   17.816854
 H   26.829239    4.982353    7.852148
 H   -1.160238   20.686647   17.816854
 H   26.829239   20.686647   17.816854
 H   -1.160238    4.982353    7.852148
 C    6.417250    6.417250   -2.836424
 C   19.251751   19.251751   28.505424
 C   19.251751   19.251751   -2.836424
 C    6.417250    6.417250   28.505424
 C   19.251751    6.417250   28.505424
 C    6.417250   19.251751   -2.836424
 C    6.417250   19.251751   28.505424
 C   19.251751    6.417250   -2.836424
 C   -2.836424    6.417250    6.417250
 C   28.505424   19.251751   19.251751
 C   -2.836424   19.251751   19.251751
 C   28.505424    6.417250    6.417250
 C   28.505424   19.251751    6.417250
 C   -2.836424    6.417250   19.251751
 C   28.505424    6.417250   19.251751
 C   -2.836424   19.251751    6.417250
 C    6.417250   -2.836424    6.417250
 C   19.251751   28.505424   19.251751
 C   19.251751   -2.836424   19.251751
 C    6.417250   28.505424    6.417250
 C    6.417250   28.505424   19.251751
 C   19.251751   -2.836424    6.417250
 C   19.251751   28.505424    6.417250
 C    6.417250   -2.836424   19.251751
 O    5.600976    7.233524   -3.437078
 O    7.233524    5.600976   -3.437078
 O   18.435476   20.068026   29.106079
 O   20.068026   18.435476   29.106079
 O   18.435476   20.068026   -3.437078
 O   20.068026   18.435476   -3.437078
 O    5.600976    7.233524   29.106079
 O    7.233524    5.600976   29.106079
 O   18.435476    5.600976   29.106079
 O   20.068026    7.233524   29.106079
 O    5.600976   18.435476   -3.437078
 O    7.233524   20.068026   -3.437078
 O    5.600976   18.435476   29.106079
 O    7.233524   20.068026   29.106079
 O   18.435476    5.600976   -3.437078
 O   20.068026    7.233524   -3.437078
 O   -3.437078    5.600976    7.233524
 O   -3.437078    7.233524    5.600976
 O   29.106079   18.435476   20.068026
 O   29.106079   20.068026   18.435476
 O   -3.437078   18.435476   20.068026
 O   -3.437078   20.068026   18.435476
 O   29.106079    5.600976    7.233524
 O   29.106079    7.233524    5.600976
 O   29.106079   18.435476    5.600976
 O   29.106079   20.068026    7.233524
 O   -3.437078    5.600976   18.435476
 O   -3.437078    7.233524   20.068026
 O   29.106079    5.600976   18.435476
 O   29.106079    7.233524   20.068026
 O   -3.437078   18.435476    5.600976
 O   -3.437078   20.068026    7.233524
 O    5.600976   -3.437078    7.233524
 O    7.233524   -3.437078    5.600976
 O   18.435476   29.106079   20.068026
 O   20.068026   29.106079   18.435476
 O   18.435476   -3.437078   20.068026
 O   20.068026   -3.437078   18.435476
 O    5.600976   29.106079    7.233524
 O    7.233524   29.106079    5.600976
 O    5.600976   29.106079   18.435476
 O    7.233524   29.106079   20.068026
 O   18.435476   -3.437078    5.600976
 O   20.068026   -3.437078    7.233524
 O   18.435476   29.106079    5.600976
 O   20.068026   29.106079    7.233524
 O    5.600976   -3.437078   18.435476
 O    7.233524   -3.437078   20.068026
