14
#1-chlorobutane Optimized using g09 in aug-cc-pVTZ M06
C          0.74346        0.66525        0.00000
H          0.75918        1.30099       -0.88424
H          0.75918        1.30099        0.88424
C         -0.44163       -0.26055        0.00000
H         -0.39318       -0.91474       -0.87593
H         -0.39317       -0.91475        0.87593
C         -1.74854        0.51174        0.00000
H         -1.78060        1.17041        0.87438
H         -1.78060        1.17041       -0.87437
C         -2.95182       -0.40708        0.00000
H         -2.94830       -1.05410       -0.87975
H         -2.94830       -1.05410        0.87976
H         -3.88904        0.14924        0.00000
Cl         2.29447       -0.24768       -0.00000
